LTspice 24.0.11 for Windows
Circuit: * C:\WORK\PraxismodulHSLU\Praxismodul\08_Auslegungen\06_Simulatonsdaten\01_DM-Filter_REAL.asc
Start Time: Wed Apr 17 17:06:37 2024
solver = Normal
Maximum thread count: 8
tnom = 27
temp = 27
method = modified trap
c1: Increased Cpar to 1e-11
.OP point found by inspection.
Total elapsed time: 0.176 seconds.

