LTspice 24.0.11 for Windows
Circuit: * C:\WORK\PraxismodulHSLU\Praxismodul\08_Auslegungen\06_Simulatonsdaten\Draft1.asc
Start Time: Mon Apr 29 15:53:33 2024
solver = Normal
Maximum thread count: 8
tnom = 27
temp = 27
method = modified trap
.OP point found by inspection.
Total elapsed time: 0.057 seconds.

